/*--------------------------------*- C++ -*----------------------------------*\
| =========                 |                                                 |
| \\      /  F ield         | OpenFOAM: The Open Source CFD Toolbox           |
|  \\    /   O peration     | Version:  2.4.0                                 |
|   \\  /    A nd           | Web:      www.OpenFOAM.org                      |
|    \\/     M anipulation  |                                                 |
\*---------------------------------------------------------------------------*/
FoamFile
{
    version     2.0;
    format      ascii;
    class       dictionary;
    location    "system";
    object      setFieldsDict;
}
// * * * * * * * * * * * * * * * * * * * * * * * * * * * * * * * * * * * * * //

defaultFieldValues
(
    volScalarFieldValue K 0
);

regions
(
    // Set cell values
    // (does zerogradient on boundaries)
    boxToCell
    {
        box (-999 -999 -999) (999 0.5 999);

        fieldValues
        (
            volScalarFieldValue K 10
        );
    }

    /*// Set patch values (using ==)
    boxToFace
    {
        box (-999 -999 -999) (999 999 0.244);

        fieldValues
        (
            volScalarFieldValue alpha.water 1
        );
    }*/
);

// ************************************************************************* //
